@<TRIPOS>MOLECULE
1
 15 15 0 0 0
SMALL
GASTEIGER
Energy = 0

@<TRIPOS>ATOM
      1 C           0.9774   -0.0488    0.0741 C.3     1  LIG1       -0.0360
      2 C           2.4657    0.0489   -0.0396 C.2     1  LIG1       -0.0002
      3 C           3.1262    1.2144   -0.0861 C.2     1  LIG1       -0.0084
      4 C           4.5965    1.2795   -0.1998 C.2     1  LIG1        0.1795
      5 O           5.1838    2.3520   -0.2377 O.2     1  LIG1       -0.2879
      6 C           5.3293    0.0030   -0.2666 C.2     1  LIG1       -0.0113
      7 C           4.6846   -1.1656   -0.2215 C.2     1  LIG1       -0.0111
      8 C           3.2140   -1.2357   -0.1030 C.2     1  LIG1        0.1821
      9 O           2.6495   -2.3215   -0.0605 O.2     1  LIG1       -0.2876
     10 H           0.5050    0.9392    0.0945 H       1  LIG1        0.0279
     11 H           0.6963   -0.5704    0.9948 H       1  LIG1        0.0279
     12 H           0.5618   -0.5964   -0.7782 H       1  LIG1        0.0279
     13 H           2.6189    2.1713   -0.0425 H       1  LIG1        0.0659
     14 H           6.4072    0.0664   -0.3530 H       1  LIG1        0.0657
     15 H           5.2080   -2.1134   -0.2692 H       1  LIG1        0.0657
@<TRIPOS>BOND
     1     3     4    1
     2     4     6    1
     3     2     3    2
     4     2     8    1
     5     7     8    1
     6     6     7    2
     7     1     2    1
     8     4     5    2
     9     8     9    2
    10     1    10    1
    11     1    11    1
    12     1    12    1
    13     3    13    1
    14     6    14    1
    15     7    15    1
@<TRIPOS>MOLECULE
2
 28 31 0 0 0
SMALL
GASTEIGER
Energy = 0

@<TRIPOS>ATOM
      1 S           1.2926    0.0566   -0.5792 S.3     1  LIG1       -0.0230
      2 S           0.7079   -1.5979    0.5022 S.3     1  LIG1       -0.0230
      3 C           1.6719   -2.8324   -0.2941 C.ar    1  LIG1        0.1464
      4 N           1.8586   -2.8557   -1.5950 N.ar    1  LIG1       -0.2319
      5 C           2.6854   -3.9146   -1.9275 C.ar    1  LIG1        0.0795
      6 C           3.1285   -4.2402   -3.2255 C.ar    1  LIG1       -0.0352
      7 C           3.9696   -5.3411   -3.4185 C.ar    1  LIG1       -0.0597
      8 C           4.3708   -6.1195   -2.3373 C.ar    1  LIG1       -0.0606
      9 C           3.9430   -5.8200   -1.0402 C.ar    1  LIG1       -0.0459
     10 C           3.1001   -4.7110   -0.8580 C.ar    1  LIG1        0.0400
     11 S           2.4150   -4.0948    0.5952 S.2     1  LIG1       -0.0602
     12 C           2.9189    0.3166    0.0404 C.ar    1  LIG1        0.1464
     13 N           3.4598   -0.4222    0.9833 N.ar    1  LIG1       -0.2319
     14 C           4.7603   -0.0143    1.2157 C.ar    1  LIG1        0.0795
     15 C           5.1945    1.0674    0.4478 C.ar    1  LIG1        0.0400
     16 S           3.9145    1.5635   -0.5902 S.2     1  LIG1       -0.0602
     17 C           6.4911    1.5934    0.5729 C.ar    1  LIG1       -0.0459
     18 C           7.3592    0.9998    1.4948 C.ar    1  LIG1       -0.0606
     19 C           6.9484   -0.0810    2.2690 C.ar    1  LIG1       -0.0597
     20 C           5.6539   -0.5936    2.1390 C.ar    1  LIG1       -0.0352
     21 H           2.8139   -3.6297   -4.0661 H       1  LIG1        0.0639
     22 H           4.3108   -5.5870   -4.4214 H       1  LIG1        0.0618
     23 H           5.0258   -6.9728   -2.5012 H       1  LIG1        0.0618
     24 H           4.2568   -6.4279   -0.1971 H       1  LIG1        0.0629
     25 H           6.8138    2.4354   -0.0318 H       1  LIG1        0.0629
     26 H           8.3694    1.3888    1.6059 H       1  LIG1        0.0618
     27 H           7.6361   -0.5327    2.9802 H       1  LIG1        0.0618
     28 H           5.3290   -1.4373    2.7400 H       1  LIG1        0.0639
@<TRIPOS>BOND
     1     7     8   ar
     2     6     7   ar
     3     8     9   ar
     4     9    10   ar
     5    10    11   ar
     6     5    10   ar
     7     3    11   ar
     8     3     4   ar
     9     4     5   ar
    10     5     6   ar
    11    18    19   ar
    12    17    18   ar
    13    19    20   ar
    14    14    20   ar
    15    13    14   ar
    16    14    15   ar
    17    12    13   ar
    18    12    16   ar
    19    15    16   ar
    20    15    17   ar
    21     1    12    1
    22     1     2    1
    23     2     3    1
    24     6    21    1
    25     7    22    1
    26     8    23    1
    27     9    24    1
    28    17    25    1
    29    18    26    1
    30    19    27    1
    31    20    28    1
@<TRIPOS>MOLECULE
3
 17 17 0 0 0
SMALL
GASTEIGER
Energy = 0

@<TRIPOS>ATOM
      1 O           1.0204   -0.0129   -0.1760 O.3     1  LIG1       -0.5003
      2 C           2.3894   -0.0406   -0.0991 C.ar    1  LIG1        0.2138
      3 C           3.0610    1.1917   -0.1496 C.ar    1  LIG1        0.0955
      4 CL          2.1952    2.6800   -0.3026 Cl      1  LIG1       -0.0793
      5 C           4.4549    1.2553   -0.0778 C.ar    1  LIG1        0.0379
      6 C           5.1917    0.0730    0.0464 C.ar    1  LIG1        0.2812
      7 C           4.5467   -1.1699    0.0992 C.ar    1  LIG1        0.0965
      8 C           3.1431   -1.2203    0.0258 C.ar    1  LIG1        0.3219
      9 N           2.4891   -2.5328    0.0830 N.pl3   1  LIG1        0.0837
     10 O           3.2075   -3.5338    0.1929 O.co2   1  LIG1       -0.5759
     11 O           1.2508   -2.5573    0.0173 O.2     1  LIG1        0.0416
     12 N           6.6578    0.1372    0.1222 N.pl3   1  LIG1        0.0799
     13 O           7.2710   -0.9322    0.2321 O.co2   1  LIG1       -0.5760
     14 O           7.1868    1.2548    0.0714 O.2     1  LIG1        0.0414
     15 H           0.6411   -0.9163   -0.1326 H       1  LIG1        0.2924
     16 H           4.9500    2.2245   -0.1194 H       1  LIG1        0.0701
     17 H           5.1299   -2.0858    0.1960 H       1  LIG1        0.0755
@<TRIPOS>BOND
     1     2     8   ar
     2     2     3   ar
     3     7     8   ar
     4     6     7   ar
     5     5     6   ar
     6     3     5   ar
     7     1     2    1
     8     6    12    1
     9    12    14    2
    10    12    13    1
    11     3     4    1
    12     8     9    1
    13     9    11    2
    14     9    10    1
    15     1    15    1
    16     5    16    1
    17     7    17    1
@<TRIPOS>MOLECULE
4
 12 12 0 0 0
SMALL
GASTEIGER
Energy = 0

@<TRIPOS>ATOM
      1 O           2.6924   -1.1697   -0.0170 O.co2   1  LIG1       -0.5755
      2 N           2.1976   -0.0352   -0.0104 N.pl3   1  LIG1        0.0887
      3 O           0.9807    0.2037   -0.0120 O.2     1  LIG1        0.0421
      4 C           3.1091    1.0878   -0.0001 C.ar    1  LIG1        0.3300
      5 C           2.6367    2.3461    0.0073 C.ar    1  LIG1        0.0894
      6 N           3.6300    3.2952    0.0166 N.ar    1  LIG1       -0.3348
      7 C           4.9022    2.8054    0.0167 C.ar    1  LIG1        0.1694
      8 N           6.0070    3.4492    0.0242 N.2     1  LIG1       -0.2773
      9 S           4.8564    1.0338    0.0043 S.2     1  LIG1        0.0235
     10 H           1.6038    2.6704    0.0067 H       1  LIG1        0.0883
     11 H           3.4478    4.2894    0.0230 H       1  LIG1        0.1675
     12 H           6.7708    2.7639    0.0216 H       1  LIG1        0.1888
@<TRIPOS>BOND
     1     4     5   ar
     2     5     6   ar
     3     4     9   ar
     4     7     9   ar
     5     6     7   ar
     6     1     2    1
     7     2     4    1
     8     7     8    2
     9     2     3    2
    10     5    10    1
    11     6    11    1
    12     8    12    1
@<TRIPOS>MOLECULE
5
 26 28 0 0 0
SMALL
GASTEIGER
Energy = 0

@<TRIPOS>ATOM
      1 N           0.9631    0.1110    0.1596 N.pl3   1  LIG1       -0.3579
      2 C           2.3510    0.0631   -0.0014 C.ar    1  LIG1        0.0253
      3 C           3.0203   -1.1627    0.0297 C.ar    1  LIG1       -0.0295
      4 C           4.4219   -1.2133    0.0019 C.ar    1  LIG1        0.0348
      5 C           5.1610   -0.0339   -0.0121 C.ar    1  LIG1        0.0332
      6 C           4.5003    1.1981    0.0149 C.ar    1  LIG1       -0.0485
      7 C           3.1035    1.2400    0.0419 C.ar    1  LIG1       -0.0403
      8 C           6.6368   -0.0737   -0.0327 C.2     1  LIG1        0.1945
      9 O           7.2853    0.9659   -0.0577 O.2     1  LIG1       -0.2866
     10 C           7.3199   -1.3825   -0.0227 C.ar    1  LIG1        0.0331
     11 C           6.5802   -2.5642   -0.0072 C.ar    1  LIG1        0.0331
     12 C           7.2391   -3.8006    0.0016 C.ar    1  LIG1       -0.0502
     13 C           8.6343   -3.8494   -0.0039 C.ar    1  LIG1       -0.0610
     14 C           9.3739   -2.6671   -0.0187 C.ar    1  LIG1       -0.0610
     15 C           8.7200   -1.4337   -0.0284 C.ar    1  LIG1       -0.0502
     16 C           5.1043   -2.5228   -0.0015 C.2     1  LIG1        0.1946
     17 O           4.4547   -3.5620   -0.0044 O.2     1  LIG1       -0.2866
     18 H           0.5323    0.9671   -0.1770 H       1  LIG1        0.1423
     19 H           0.4761   -0.7174   -0.1712 H       1  LIG1        0.1423
     20 H           2.4512   -2.0895    0.0749 H       1  LIG1        0.0643
     21 H           5.0663    2.1278    0.0310 H       1  LIG1        0.0625
     22 H           2.6063    2.2059    0.0988 H       1  LIG1        0.0636
     23 H           6.6687   -4.7279    0.0132 H       1  LIG1        0.0625
     24 H           9.1436   -4.8103    0.0036 H       1  LIG1        0.0618
     25 H          10.4610   -2.7049   -0.0225 H       1  LIG1        0.0618
     26 H           9.3041   -0.5154   -0.0398 H       1  LIG1        0.0625
@<TRIPOS>BOND
     1     2     7   ar
     2     2     3   ar
     3     6     7   ar
     4     5     6   ar
     5     5     8    1
     6     4     5   ar
     7     8    10    1
     8    10    15   ar
     9    10    11   ar
    10    14    15   ar
    11    13    14   ar
    12    12    13   ar
    13    11    12   ar
    14    11    16    1
    15     4    16    1
    16     3     4   ar
    17     1     2    1
    18     8     9    2
    19    16    17    2
    20     1    18    1
    21     1    19    1
    22     3    20    1
    23     6    21    1
    24     7    22    1
    25    12    23    1
    26    13    24    1
    27    14    25    1
    28    15    26    1
@<TRIPOS>MOLECULE
6
 37 40 0 0 0
SMALL
GASTEIGER
Energy = 0

@<TRIPOS>ATOM
      1 O           0.9485    2.6307   -1.9969 O.3     1  LIG1       -0.4771
      2 C           1.8296    1.6957   -1.5924 C.2     1  LIG1        0.3374
      3 O           2.0314    0.6489   -2.1819 O.2     1  LIG1       -0.2451
      4 C           2.6090    2.0948   -0.4018 C.ar    1  LIG1        0.0665
      5 C           2.0107    2.3891    0.8382 C.ar    1  LIG1       -0.0026
      6 C           2.8395    2.7041    1.9289 C.ar    1  LIG1       -0.0532
      7 C           4.2287    2.7234    1.7850 C.ar    1  LIG1       -0.0611
      8 C           4.8104    2.4187    0.5561 C.ar    1  LIG1       -0.0609
      9 C           4.0042    2.0964   -0.5350 C.ar    1  LIG1       -0.0472
     10 C           0.5365    2.3689    1.0590 C.ar    1  LIG1        0.0043
     11 C          -0.1118    1.1931    1.2812 C.ar    1  LIG1        0.0270
     12 C           0.6060   -0.0851    1.3469 C.ar    1  LIG1       -0.0468
     13 C          -0.0275   -1.2369    1.5940 C.ar    1  LIG1       -0.0130
     14 C          -1.4893   -1.2742    1.8153 C.ar    1  LIG1        0.1964
     15 O          -2.0245   -2.3459    2.0797 O.2     1  LIG1       -0.2866
     16 C          -2.2365    0.0152    1.7096 C.ar    1  LIG1        0.1072
     17 C          -1.5757    1.1638    1.4611 C.ar    1  LIG1        0.1538
     18 O          -2.2989    2.3445    1.3576 O.2     1  LIG1       -0.4523
     19 C          -1.6616    3.5423    1.1839 C.ar    1  LIG1        0.1536
     20 C          -0.2731    3.6172    1.0505 C.ar    1  LIG1        0.0270
     21 C           0.3178    4.8847    0.8949 C.ar    1  LIG1       -0.0470
     22 C          -0.4626    6.0422    0.8601 C.ar    1  LIG1       -0.0183
     23 C          -1.8417    5.9462    0.9812 C.ar    1  LIG1        0.1344
     24 C          -2.4502    4.7023    1.1457 C.ar    1  LIG1        0.1019
     25 BR         -4.3422    4.6052    1.3165 Br      1  LIG1       -0.0427
     26 O          -2.5485    7.1144    0.9332 O.3     1  LIG1       -0.5055
     27 BR         -4.0966   -0.0590    1.9435 Br      1  LIG1       -0.0425
     28 H           0.9464    3.4520   -1.4711 H       1  LIG1        0.2954
     29 H           2.4071    2.9297    2.9028 H       1  LIG1        0.0624
     30 H           4.8596    2.9652    2.6382 H       1  LIG1        0.0618
     31 H           5.8933    2.4196    0.4502 H       1  LIG1        0.0618
     32 H           4.4633    1.8361   -1.4876 H       1  LIG1        0.0626
     33 H           1.6803   -0.1268    1.1964 H       1  LIG1        0.0626
     34 H           0.4928   -2.1860    1.6450 H       1  LIG1        0.0656
     35 H           1.3956    5.0037    0.8063 H       1  LIG1        0.0626
     36 H           0.0048    7.0169    0.7415 H       1  LIG1        0.0654
     37 H          -3.4942    6.8929    1.0243 H       1  LIG1        0.2922
@<TRIPOS>BOND
     1    13    14   ar
     2    12    13   ar
     3    14    16   ar
     4    16    17   ar
     5    17    18   ar
     6    11    17    1
     7    18    19   ar
     8    19    24   ar
     9    19    20   ar
    10    23    24   ar
    11    22    23   ar
    12    21    22   ar
    13    20    21   ar
    14    10    20   ar
    15    10    11   ar
    16    11    12   ar
    17     5     6   ar
    18     6     7   ar
    19     4     5   ar
    20     4     9   ar
    21     8     9   ar
    22     7     8   ar
    23     1     2    1
    24     2     4    1
    25     5    10    1
    26    16    27    1
    27    14    15    2
    28    24    25    1
    29    23    26    1
    30     2     3    2
    31     1    28    1
    32     6    29    1
    33     7    30    1
    34     8    31    1
    35     9    32    1
    36    12    33    1
    37    13    34    1
    38    21    35    1
    39    22    36    1
    40    26    37    1
@<TRIPOS>MOLECULE
7
 26 27 0 0 0
SMALL
GASTEIGER
Energy = 0

@<TRIPOS>ATOM
      1 C           1.4461   -0.3880    0.5254 C.3     1  LIG1        0.0005
      2 N           2.8167   -0.2112    0.0359 N.pl3   1  LIG1       -0.3318
      3 C           3.2640   -1.2938   -0.8453 C.3     1  LIG1        0.0005
      4 C           3.4620    1.0496    0.0415 C.2     1  LIG1        0.0994
      5 C           4.7798    1.2487    0.2572 C.2     1  LIG1        0.1128
      6 CL          5.8543   -0.0675    0.6469 Cl      1  LIG1       -0.0775
      7 C           5.4315    2.5863    0.2535 C.2     1  LIG1        0.2068
      8 O           6.6413    2.7368    0.3910 O.2     1  LIG1       -0.2856
      9 C           4.5734    3.7645    0.0843 C.ar    1  LIG1        0.0340
     10 C           3.2122    3.6134   -0.1358 C.ar    1  LIG1        0.0344
     11 C           2.4054    4.7510   -0.2993 C.ar    1  LIG1       -0.0502
     12 C           2.9655    6.0282   -0.2381 C.ar    1  LIG1       -0.0610
     13 C           4.3325    6.1772   -0.0166 C.ar    1  LIG1       -0.0610
     14 C           5.1371    5.0485    0.1437 C.ar    1  LIG1       -0.0502
     15 C           2.6032    2.2742   -0.2146 C.2     1  LIG1        0.2091
     16 O           1.4113    2.1928   -0.5023 O.2     1  LIG1       -0.2852
     17 H           1.2294    0.2916    1.3564 H       1  LIG1        0.0428
     18 H           1.3125   -1.4077    0.9043 H       1  LIG1        0.0428
     19 H           0.7182   -0.2281   -0.2766 H       1  LIG1        0.0428
     20 H           2.4434   -1.6346   -1.4871 H       1  LIG1        0.0428
     21 H           3.6073   -2.1436   -0.2468 H       1  LIG1        0.0428
     22 H           4.0760   -0.9797   -1.5096 H       1  LIG1        0.0428
     23 H           1.3362    4.6464   -0.4767 H       1  LIG1        0.0625
     24 H           2.3346    6.9051   -0.3655 H       1  LIG1        0.0618
     25 H           4.7731    7.1704    0.0303 H       1  LIG1        0.0618
     26 H           6.2053    5.1737    0.3151 H       1  LIG1        0.0625
@<TRIPOS>BOND
     1     4     5    2
     2     4    15    1
     3     5     7    1
     4     7     9    1
     5     9    14   ar
     6     9    10   ar
     7    13    14   ar
     8    12    13   ar
     9    11    12   ar
    10    10    11   ar
    11    10    15    1
    12     1     2    1
    13     2     4    1
    14     7     8    2
    15     5     6    1
    16    15    16    2
    17     2     3    1
    18     1    17    1
    19     1    18    1
    20     1    19    1
    21     3    20    1
    22     3    21    1
    23     3    22    1
    24    11    23    1
    25    12    24    1
    26    13    25    1
    27    14    26    1
@<TRIPOS>MOLECULE
8
 29 31 0 0 0
SMALL
GASTEIGER
Energy = 0

@<TRIPOS>ATOM
      1 C           0.9376    0.1811    0.0423 C.3     1  LIG1       -0.0333
      2 C           2.4386    0.0616    0.0303 C.ar    1  LIG1        0.0274
      3 C           3.1008   -1.1879    0.0088 C.ar    1  LIG1        0.2874
      4 C           4.5024   -1.2957   -0.0023 C.ar    1  LIG1        0.1102
      5 C           5.2497   -0.1155    0.0088 C.ar    1  LIG1        0.0396
      6 C           4.6107    1.1349    0.0298 C.ar    1  LIG1       -0.0496
      7 C           3.2190    1.2224    0.0403 C.ar    1  LIG1       -0.0517
      8 C           6.7278   -0.1449   -0.0009 C.2     1  LIG1        0.1947
      9 O           7.3676    0.9000    0.0081 O.2     1  LIG1       -0.2866
     10 C           7.4233   -1.4421   -0.0210 C.ar    1  LIG1        0.0331
     11 C           8.8237   -1.4814   -0.0282 C.ar    1  LIG1       -0.0502
     12 C           9.4872   -2.7090   -0.0473 C.ar    1  LIG1       -0.0610
     13 C           8.7561   -3.8957   -0.0592 C.ar    1  LIG1       -0.0610
     14 C           7.3605   -3.8564   -0.0521 C.ar    1  LIG1       -0.0502
     15 C           6.6914   -2.6252   -0.0328 C.ar    1  LIG1        0.0333
     16 C           5.2151   -2.5939   -0.0254 C.2     1  LIG1        0.2010
     17 O           4.5980   -3.6492   -0.0392 O.2     1  LIG1       -0.2864
     18 N           2.2774   -2.3817   -0.0003 N.pl3   1  LIG1        0.0806
     19 O           1.9002   -2.7858   -1.1084 O.co2   1  LIG1       -0.5760
     20 O           1.9223   -2.8178    1.1031 O.2     1  LIG1        0.0415
     21 H           0.6203    1.2293    0.0610 H       1  LIG1        0.0280
     22 H           0.5221   -0.3014    0.9325 H       1  LIG1        0.0280
     23 H           0.5101   -0.2733   -0.8570 H       1  LIG1        0.0280
     24 H           5.2000    2.0524    0.0382 H       1  LIG1        0.0625
     25 H           2.7523    2.2067    0.0566 H       1  LIG1        0.0622
     26 H           9.4014   -0.5586   -0.0191 H       1  LIG1        0.0625
     27 H          10.5748   -2.7390   -0.0529 H       1  LIG1        0.0618
     28 H           9.2718   -4.8536   -0.0741 H       1  LIG1        0.0618
     29 H           6.7988   -4.7896   -0.0616 H       1  LIG1        0.0625
@<TRIPOS>BOND
     1     2     7   ar
     2     2     3   ar
     3     6     7   ar
     4     5     6   ar
     5     5     8    1
     6     4     5   ar
     7     8    10    1
     8    10    11   ar
     9    10    15   ar
    10    11    12   ar
    11    12    13   ar
    12    13    14   ar
    13    14    15   ar
    14    15    16    1
    15     4    16    1
    16     3     4   ar
    17     1     2    1
    18     3    18    1
    19    18    20    2
    20    18    19    1
    21     8     9    2
    22    16    17    2
    23     1    21    1
    24     1    22    1
    25     1    23    1
    26     6    24    1
    27     7    25    1
    28    11    26    1
    29    12    27    1
    30    13    28    1
    31    14    29    1
@<TRIPOS>MOLECULE
9
 16 15 0 0 0
SMALL
GASTEIGER
Energy = 0

@<TRIPOS>ATOM
      1 C           1.2257   -0.1588   -0.8941 C.3     1  LIG1       -0.0174
      2 C           2.3763    0.0359    0.0513 C.2     1  LIG1        0.1008
      3 N           2.8539   -0.8572    0.8668 N.2     1  LIG1       -0.0905
      4 O           2.1472   -2.0613    0.7633 O.2     1  LIG1       -0.4090
      5 C           3.0473    1.3871    0.0297 C.2     1  LIG1        0.1008
      6 C           3.1253    2.1203    1.3382 C.3     1  LIG1       -0.0174
      7 N           3.5213    1.8024   -1.1076 N.2     1  LIG1       -0.0905
      8 O           4.1299    3.0558   -0.9709 O.2     1  LIG1       -0.4090
      9 H           0.8887    0.7995   -1.2983 H       1  LIG1        0.0294
     10 H           0.3842   -0.6233   -0.3724 H       1  LIG1        0.0294
     11 H           1.5420   -0.8026   -1.7195 H       1  LIG1        0.0294
     12 H           2.6274   -2.6418    1.3835 H       1  LIG1        0.3278
     13 H           2.4647    1.6630    2.0795 H       1  LIG1        0.0294
     14 H           2.8188    3.1617    1.2050 H       1  LIG1        0.0294
     15 H           4.1536    2.0883    1.7087 H       1  LIG1        0.0294
     16 H           4.4719    3.2236   -1.8692 H       1  LIG1        0.3278
@<TRIPOS>BOND
     1     1     2    1
     2     2     5    1
     3     5     7    2
     4     7     8    1
     5     5     6    1
     6     2     3    2
     7     3     4    1
     8     1     9    1
     9     1    10    1
    10     1    11    1
    11     4    12    1
    12     6    13    1
    13     6    14    1
    14     6    15    1
    15     8    16    1
@<TRIPOS>MOLECULE
10
 34 36 0 0 0
SMALL
GASTEIGER
Energy = 0

@<TRIPOS>ATOM
      1 C          -0.9515   -4.3219    6.9363 C.ar    1  LIG1       -0.0617
      2 C          -0.3982   -3.1353    7.4079 C.ar    1  LIG1       -0.0611
      3 C           0.7126   -2.5740    6.7687 C.ar    1  LIG1       -0.0535
      4 C           1.3059   -3.1980    5.6605 C.ar    1  LIG1       -0.0147
      5 C           0.7143   -4.3839    5.1875 C.ar    1  LIG1       -0.0535
      6 C          -0.3982   -4.9446    5.8224 C.ar    1  LIG1       -0.0611
      7 P           2.7090   -2.4761    4.7482 P.3     1  LIG1       -0.0131
      8 C           3.4872   -1.3111    5.9138 C.ar    1  LIG1       -0.0147
      9 C           4.0104   -1.6854    7.1610 C.ar    1  LIG1       -0.0535
     10 C           4.5968   -0.7396    8.0071 C.ar    1  LIG1       -0.0611
     11 C           4.6719    0.5947    7.6190 C.ar    1  LIG1       -0.0617
     12 C           4.1597    0.9859    6.3848 C.ar    1  LIG1       -0.0611
     13 C           3.5723    0.0400    5.5402 C.ar    1  LIG1       -0.0535
     14 C           3.9634   -3.8025    4.6848 C.ar    1  LIG1       -0.0147
     15 C           4.9162   -3.7497    3.6522 C.ar    1  LIG1       -0.0535
     16 C           5.9173   -4.7187    3.5416 C.ar    1  LIG1       -0.0611
     17 C           5.9849   -5.7578    4.4644 C.ar    1  LIG1       -0.0617
     18 C           5.0511   -5.8286    5.4946 C.ar    1  LIG1       -0.0611
     19 C           4.0479   -4.8599    5.6026 C.ar    1  LIG1       -0.0535
     20 H          -1.8198   -4.7522    7.4280 H       1  LIG1        0.0618
     21 H          -0.8361   -2.6347    8.2676 H       1  LIG1        0.0618
     22 H           1.0939   -1.6303    7.1516 H       1  LIG1        0.0624
     23 H           1.1140   -4.8856    4.3075 H       1  LIG1        0.0624
     24 H          -0.8355   -5.8625    5.4380 H       1  LIG1        0.0618
     25 H           3.9626   -2.7174    7.4967 H       1  LIG1        0.0624
     26 H           4.9959   -1.0499    8.9697 H       1  LIG1        0.0618
     27 H           5.1303    1.3289    8.2761 H       1  LIG1        0.0618
     28 H           4.2178    2.0260    6.0761 H       1  LIG1        0.0618
     29 H           3.1808    0.3723    4.5802 H       1  LIG1        0.0624
     30 H           4.8912   -2.9444    2.9202 H       1  LIG1        0.0624
     31 H           6.6447   -4.6562    2.7364 H       1  LIG1        0.0618
     32 H           6.7658   -6.5091    4.3828 H       1  LIG1        0.0618
     33 H           5.1034   -6.6361    6.2202 H       1  LIG1        0.0618
     34 H           3.3420   -4.9424    6.4257 H       1  LIG1        0.0624
@<TRIPOS>BOND
     1     1     2   ar
     2     2     3   ar
     3     1     6   ar
     4     5     6   ar
     5     4     5   ar
     6     3     4   ar
     7     8     9   ar
     8     9    10   ar
     9     8    13   ar
    10    12    13   ar
    11    11    12   ar
    12    10    11   ar
    13    14    15   ar
    14    15    16   ar
    15    14    19   ar
    16    18    19   ar
    17    17    18   ar
    18    16    17   ar
    19     4     7    1
    20     7    14    1
    21     7     8    1
    22     1    20    1
    23     2    21    1
    24     3    22    1
    25     5    23    1
    26     6    24    1
    27     9    25    1
    28    10    26    1
    29    11    27    1
    30    12    28    1
    31    13    29    1
    32    15    30    1
    33    16    31    1
    34    17    32    1
    35    18    33    1
    36    19    34    1
@<TRIPOS>MOLECULE
11
 38 38 0 0 0
SMALL
GASTEIGER
Energy = 0

@<TRIPOS>ATOM
      1 C           2.9934   -1.1474   -0.1141 C.3     1  LIG1       -0.0559
      2 C           2.1278    0.0903    0.2375 C.3     1  LIG1       -0.0091
      3 C           0.8644   -0.0030   -0.6471 C.3     1  LIG1       -0.0559
      4 C           1.7384   -0.0652    1.7245 C.3     1  LIG1       -0.0559
      5 C           2.8485    1.4359    0.0062 C.ar    1  LIG1        0.0029
      6 C           2.2392    2.6739    0.2600 C.ar    1  LIG1        0.1210
      7 O           0.9571    2.7136    0.7373 O.3     1  LIG1       -0.5065
      8 C           2.9011    3.8947    0.0404 C.ar    1  LIG1       -0.0127
      9 C           4.2176    3.9505   -0.4475 C.ar    1  LIG1        0.0029
     10 C           4.8288    2.7124   -0.6962 C.ar    1  LIG1        0.1210
     11 C           4.1669    1.4917   -0.4777 C.ar    1  LIG1       -0.0127
     12 O           6.1132    2.6728   -1.1678 O.3     1  LIG1       -0.5065
     13 C           4.9341    5.2964   -0.6903 C.3     1  LIG1       -0.0091
     14 C           4.0608    6.5344   -0.3594 C.3     1  LIG1       -0.0559
     15 C           6.1917    5.4051    0.2002 C.3     1  LIG1       -0.0559
     16 C           5.3316    5.4365   -2.1769 C.3     1  LIG1       -0.0559
     17 H           3.9019   -1.1928    0.4977 H       1  LIG1        0.0238
     18 H           3.2881   -1.1481   -1.1702 H       1  LIG1        0.0238
     19 H           2.4426   -2.0792    0.0635 H       1  LIG1        0.0238
     20 H           1.1138    0.1426   -1.7049 H       1  LIG1        0.0238
     21 H           0.1053    0.7390   -0.3841 H       1  LIG1        0.0238
     22 H           0.3869   -0.9854   -0.5503 H       1  LIG1        0.0238
     23 H           2.6165    0.0350    2.3733 H       1  LIG1        0.0238
     24 H           1.2949   -1.0498    1.9149 H       1  LIG1        0.0238
     25 H           1.0029    0.6755    2.0512 H       1  LIG1        0.0238
     26 H           0.6889    3.6374    0.8638 H       1  LIG1        0.2921
     27 H           2.3616    4.8099    0.2595 H       1  LIG1        0.0658
     28 H           4.7065    0.5764   -0.6958 H       1  LIG1        0.0658
     29 H           6.3851    1.7485   -1.2840 H       1  LIG1        0.2921
     30 H           3.1538    6.5655   -0.9745 H       1  LIG1        0.0238
     31 H           4.6071    7.4665   -0.5493 H       1  LIG1        0.0238
     32 H           3.7631    6.5495    0.6956 H       1  LIG1        0.0238
     33 H           6.9530    4.6597   -0.0466 H       1  LIG1        0.0238
     34 H           5.9362    5.2756    1.2586 H       1  LIG1        0.0238
     35 H           6.6684    6.3865    0.0911 H       1  LIG1        0.0238
     36 H           6.0763    4.6992   -2.4897 H       1  LIG1        0.0238
     37 H           5.7670    6.4227   -2.3775 H       1  LIG1        0.0238
     38 H           4.4586    5.3196   -2.8299 H       1  LIG1        0.0238
@<TRIPOS>BOND
     1     6     8   ar
     2     8     9   ar
     3     5     6   ar
     4     5    11   ar
     5    10    11   ar
     6     9    10   ar
     7     1     2    1
     8     2     5    1
     9     9    13    1
    10    13    16    1
    11    13    15    1
    12    13    14    1
    13    10    12    1
    14     6     7    1
    15     2     4    1
    16     2     3    1
    17     1    17    1
    18     1    18    1
    19     1    19    1
    20     3    20    1
    21     3    21    1
    22     3    22    1
    23     4    23    1
    24     4    24    1
    25     4    25    1
    26     7    26    1
    27     8    27    1
    28    11    28    1
    29    12    29    1
    30    14    30    1
    31    14    31    1
    32    14    32    1
    33    15    33    1
    34    15    34    1
    35    15    35    1
    36    16    36    1
    37    16    37    1
    38    16    38    1
@<TRIPOS>MOLECULE
12
 23 24 0 0 0
SMALL
GASTEIGER
Energy = 0

@<TRIPOS>ATOM
      1 C           1.1658   -0.1777    0.0068 C.3     1  LIG1       -0.0243
      2 C           2.6486   -0.0436    0.0358 C.2     1  LIG1        0.0432
      3 N           3.4636   -1.0479    0.1104 N.2     1  LIG1       -0.1814
      4 N           4.7410   -0.5126    0.1125 N.am    1  LIG1       -0.1606
      5 C           4.7641    0.8899    0.0367 C.2     1  LIG1        0.2449
      6 O           5.6938    1.6803    0.0165 O.2     1  LIG1       -0.2731
      7 C           3.3193    1.2877   -0.0203 C.3     1  LIG1        0.0658
      8 C           5.8457   -1.3983    0.1877 C.ar    1  LIG1        0.0600
      9 C           7.1685   -0.9363    0.1949 C.ar    1  LIG1       -0.0384
     10 C           8.2435   -1.8301    0.2699 C.ar    1  LIG1       -0.0599
     11 C           8.0127   -3.2009    0.3389 C.ar    1  LIG1       -0.0616
     12 C           6.7068   -3.6801    0.3330 C.ar    1  LIG1       -0.0599
     13 C           5.6341   -2.7859    0.2581 C.ar    1  LIG1       -0.0384
     14 H           0.8764   -1.2303    0.0566 H       1  LIG1        0.0290
     15 H           0.7809    0.2588   -0.9185 H       1  LIG1        0.0290
     16 H           0.7375    0.3549    0.8599 H       1  LIG1        0.0290
     17 H           3.0906    1.7929   -0.9604 H       1  LIG1        0.0420
     18 H           3.0463    1.8912    0.8473 H       1  LIG1        0.0420
     19 H           7.4000    0.1231    0.1430 H       1  LIG1        0.0637
     20 H           9.2615   -1.4488    0.2741 H       1  LIG1        0.0618
     21 H           8.8483   -3.8929    0.3970 H       1  LIG1        0.0618
     22 H           6.5172   -4.7487    0.3865 H       1  LIG1        0.0618
     23 H           4.6247   -3.1896    0.2553 H       1  LIG1        0.0637
@<TRIPOS>BOND
     1     8     9   ar
     2     9    10   ar
     3     8    13   ar
     4    12    13   ar
     5    11    12   ar
     6    10    11   ar
     7     4     5   am
     8     5     7    1
     9     3     4    1
    10     2     3    2
    11     2     7    1
    12     1     2    1
    13     4     8    1
    14     5     6    2
    15     1    14    1
    16     1    15    1
    17     1    16    1
    18     7    17    1
    19     7    18    1
    20     9    19    1
    21    10    20    1
    22    11    21    1
    23    12    22    1
    24    13    23    1
@<TRIPOS>MOLECULE
13
 19 20 0 0 0
SMALL
GASTEIGER
Energy = 0

@<TRIPOS>ATOM
      1 N           0.9386    0.0782   -0.1710 N.pl3   1  LIG1       -0.3574
      2 C           2.3399    0.0366   -0.0081 C.ar    1  LIG1        0.0353
      3 C           3.0430    1.2391   -0.0529 C.ar    1  LIG1       -0.0223
      4 C           4.4211    1.2049    0.0158 C.ar    1  LIG1        0.0300
      5 N           5.1404    0.0686    0.0875 N.ar    1  LIG1       -0.2548
      6 C           4.4795   -1.0983    0.0520 C.ar    1  LIG1        0.0741
      7 C           3.0678   -1.1809   -0.0193 C.ar    1  LIG1        0.0211
      8 C           2.4671   -2.4609   -0.0946 C.ar    1  LIG1       -0.0494
      9 C           3.2396   -3.6212   -0.0771 C.ar    1  LIG1       -0.0426
     10 C           4.6198   -3.5159    0.0124 C.ar    1  LIG1        0.0430
     11 C           5.2277   -2.2658    0.0740 C.ar    1  LIG1       -0.0173
     12 CL          5.5845   -4.9409    0.0378 Cl      1  LIG1       -0.0835
     13 H           0.5218    0.9562    0.1250 H       1  LIG1        0.1423
     14 H           0.4561   -0.7122    0.2433 H       1  LIG1        0.1423
     15 H           2.5319    2.1917   -0.1305 H       1  LIG1        0.0651
     16 H           5.0042    2.1214    0.0071 H       1  LIG1        0.0830
     17 H           1.3889   -2.5646   -0.1799 H       1  LIG1        0.0625
     18 H           2.7595   -4.5947   -0.1367 H       1  LIG1        0.0632
     19 H           6.3111   -2.1904    0.1325 H       1  LIG1        0.0653
@<TRIPOS>BOND
     1     3     4   ar
     2     4     5   ar
     3     2     3   ar
     4     2     7   ar
     5     7     8   ar
     6     6     7   ar
     7     8     9   ar
     8     9    10   ar
     9    10    11   ar
    10     6    11   ar
    11     5     6   ar
    12     1     2    1
    13    10    12    1
    14     1    13    1
    15     1    14    1
    16     3    15    1
    17     4    16    1
    18     8    17    1
    19     9    18    1
    20    11    19    1
@<TRIPOS>MOLECULE
14
 35 35 0 0 0
SMALL
GASTEIGER
Energy = 0

@<TRIPOS>ATOM
      1 C           2.2548   -0.2923   -1.7246 C.3     1  LIG1       -0.0653
      2 C           3.0867    0.4232   -0.6721 C.3     1  LIG1       -0.0559
      3 C           3.6671    1.7300   -1.2117 C.3     1  LIG1       -0.0533
      4 C           4.4818    2.4617   -0.1436 C.3     1  LIG1       -0.0530
      5 C           5.0736    3.7620   -0.6918 C.3     1  LIG1       -0.0516
      6 C           5.8728    4.5074    0.3835 C.3     1  LIG1       -0.0375
      7 C           6.5592    5.7792   -0.1506 C.3     1  LIG1        0.0076
      8 H           7.1967    5.4904   -0.9965 H       1  LIG1        0.0460
      9 C           7.4380    6.4065    0.9447 C.3     1  LIG1       -0.0375
     10 C           8.0937    7.6970    0.4593 C.3     1  LIG1       -0.0505
     11 C           7.0489    8.6502   -0.1108 C.3     1  LIG1       -0.0404
     12 C           6.1810    7.9531   -1.1553 C.3     1  LIG1       -0.0039
     13 N           5.5525    6.7435   -0.6209 N.3     1  LIG1       -0.3132
     14 H           1.8558   -1.2281   -1.3208 H       1  LIG1        0.0230
     15 H           2.8581   -0.5321   -2.6060 H       1  LIG1        0.0230
     16 H           1.4104    0.3269   -2.0441 H       1  LIG1        0.0230
     17 H           3.8983   -0.2370   -0.3447 H       1  LIG1        0.0263
     18 H           2.4600    0.6265    0.2040 H       1  LIG1        0.0263
     19 H           2.8533    2.3779   -1.5595 H       1  LIG1        0.0265
     20 H           4.3039    1.5178   -2.0792 H       1  LIG1        0.0265
     21 H           5.2900    1.8114    0.2126 H       1  LIG1        0.0265
     22 H           3.8411    2.6839    0.7185 H       1  LIG1        0.0265
     23 H           4.2625    4.3976   -1.0658 H       1  LIG1        0.0266
     24 H           5.7273    3.5353   -1.5428 H       1  LIG1        0.0266
     25 H           6.6403    3.8330    0.7851 H       1  LIG1        0.0280
     26 H           5.2096    4.7606    1.2210 H       1  LIG1        0.0280
     27 H           8.2175    5.6993    1.2523 H       1  LIG1        0.0280
     28 H           6.8339    6.6215    1.8359 H       1  LIG1        0.0280
     29 H           8.6317    8.1782    1.2834 H       1  LIG1        0.0266
     30 H           8.8341    7.4608   -0.3147 H       1  LIG1        0.0266
     31 H           6.4161    9.0273    0.7023 H       1  LIG1        0.0277
     32 H           7.5450    9.5182   -0.5594 H       1  LIG1        0.0277
     33 H           5.3957    8.6389   -1.4922 H       1  LIG1        0.0424
     34 H           6.7770    7.7018   -2.0406 H       1  LIG1        0.0424
     35 H           4.9442    6.9982    0.1563 H       1  LIG1        0.1222
@<TRIPOS>BOND
     1     7    13    1
     2     7     9    1
     3    12    13    1
     4    11    12    1
     5    10    11    1
     6     9    10    1
     7     1     2    1
     8     2     3    1
     9     3     4    1
    10     4     5    1
    11     5     6    1
    12     6     7    1
    13     7     8    1
    14     1    14    1
    15     1    15    1
    16     1    16    1
    17     2    17    1
    18     2    18    1
    19     3    19    1
    20     3    20    1
    21     4    21    1
    22     4    22    1
    23     5    23    1
    24     5    24    1
    25     6    25    1
    26     6    26    1
    27     9    27    1
    28     9    28    1
    29    10    29    1
    30    10    30    1
    31    11    31    1
    32    11    32    1
    33    12    33    1
    34    12    34    1
    35    13    35    1
@<TRIPOS>MOLECULE
15
 26 28 0 0 0
SMALL
GASTEIGER
Energy = 0

@<TRIPOS>ATOM
      1 O           1.3057   -0.3128   -0.6731 O.2     1  LIG1       -0.2957
      2 C           2.2868   -0.0644    0.0154 C.2     1  LIG1        0.1514
      3 C           3.0052    1.2350   -0.0155 C.ar    1  LIG1        0.0296
      4 C           2.2657    2.4565   -0.0172 C.ar    1  LIG1       -0.0071
      5 C           0.8499    2.5586   -0.0097 C.ar    1  LIG1       -0.0534
      6 C           0.1946    3.7924   -0.0046 C.ar    1  LIG1       -0.0611
      7 C           0.9330    4.9654   -0.0009 C.ar    1  LIG1       -0.0612
      8 C           2.3240    4.9010    0.0016 C.ar    1  LIG1       -0.0540
      9 C           2.9954    3.6658   -0.0026 C.ar    1  LIG1       -0.0166
     10 C           4.3969    3.6375    0.0173 C.ar    1  LIG1       -0.0463
     11 C           5.1188    2.4364    0.0184 C.ar    1  LIG1       -0.0166
     12 C           4.4325    1.2026   -0.0039 C.ar    1  LIG1       -0.0071
     13 C           5.2233    0.0228   -0.0361 C.ar    1  LIG1       -0.0534
     14 C           6.6199    0.0672   -0.0209 C.ar    1  LIG1       -0.0611
     15 C           7.2705    1.2908    0.0193 C.ar    1  LIG1       -0.0612
     16 C           6.5242    2.4667    0.0351 C.ar    1  LIG1       -0.0540
     17 H           2.7016   -0.8281    0.6939 H       1  LIG1        0.1082
     18 H           0.2264    1.6664   -0.0144 H       1  LIG1        0.0624
     19 H          -0.8920    3.8282   -0.0068 H       1  LIG1        0.0618
     20 H           0.4299    5.9287    0.0011 H       1  LIG1        0.0618
     21 H           2.8855    5.8337    0.0089 H       1  LIG1        0.0624
     22 H           4.9425    4.5810    0.0307 H       1  LIG1        0.0630
     23 H           4.7636   -0.9616   -0.0915 H       1  LIG1        0.0624
     24 H           7.1943   -0.8554   -0.0477 H       1  LIG1        0.0618
     25 H           8.3564    1.3336    0.0288 H       1  LIG1        0.0618
     26 H           7.0543    3.4170    0.0556 H       1  LIG1        0.0624
@<TRIPOS>BOND
     1     6     7   ar
     2     5     6   ar
     3     7     8   ar
     4     8     9   ar
     5     9    10   ar
     6     4     9   ar
     7    10    11   ar
     8    11    16   ar
     9    11    12   ar
    10    15    16   ar
    11    14    15   ar
    12    13    14   ar
    13    12    13   ar
    14     3    12   ar
    15     3     4   ar
    16     4     5   ar
    17     1     2    2
    18     2     3    1
    19     2    17    1
    20     5    18    1
    21     6    19    1
    22     7    20    1
    23     8    21    1
    24    10    22    1
    25    13    23    1
    26    14    24    1
    27    15    25    1
    28    16    26    1
@<TRIPOS>MOLECULE
16
 12 12 0 0 0
SMALL
GASTEIGER
Energy = 0

@<TRIPOS>ATOM
      1 BR          1.2972   -0.0709    0.7869 Br      1  LIG1        0.0466
      2 N           3.0301   -0.0108    0.0925 N.am    1  LIG1       -0.1747
      3 C           3.6863    1.1549   -0.1825 C.2     1  LIG1        0.2321
      4 O           3.2949    2.3007   -0.0139 O.2     1  LIG1       -0.2743
      5 C           5.0197    0.8146   -0.7808 C.3     1  LIG1        0.0336
      6 C           5.1172   -0.6950   -0.6680 C.3     1  LIG1        0.0336
      7 C           3.7627   -1.1284   -0.1891 C.2     1  LIG1        0.2321
      8 O           3.4324   -2.2993   -0.0685 O.2     1  LIG1       -0.2743
      9 H           5.0390    1.1364   -1.8264 H       1  LIG1        0.0363
     10 H           5.8232    1.3105   -0.2293 H       1  LIG1        0.0363
     11 H           5.3460   -1.1551   -1.6332 H       1  LIG1        0.0363
     12 H           5.8717   -0.9900    0.0676 H       1  LIG1        0.0363
@<TRIPOS>BOND
     1     2     7   am
     2     2     3   am
     3     6     7    1
     4     5     6    1
     5     3     5    1
     6     1     2    1
     7     3     4    2
     8     7     8    2
     9     5     9    1
    10     5    10    1
    11     6    11    1
    12     6    12    1
@<TRIPOS>MOLECULE
17
 60 60 0 0 0
SMALL
GASTEIGER
Energy = 0

@<TRIPOS>ATOM
      1 C           0.9642   -0.1088   -0.2116 C.3     1  LIG1       -0.0653
      2 C           2.4804   -0.0536   -0.1141 C.3     1  LIG1       -0.0559
      3 C           2.9949    1.3847   -0.1706 C.3     1  LIG1       -0.0533
      4 C           4.5214    1.4321   -0.0832 C.3     1  LIG1       -0.0531
      5 C           5.0368    2.8719   -0.1100 C.3     1  LIG1       -0.0531
      6 C           6.5640    2.9181   -0.0376 C.3     1  LIG1       -0.0531
      7 C           7.0771    4.3593   -0.0413 C.3     1  LIG1       -0.0531
      8 C           8.6046    4.4060    0.0128 C.3     1  LIG1       -0.0531
      9 C           9.1190    5.8468    0.0346 C.3     1  LIG1       -0.0531
     10 C          10.6471    5.8847    0.0559 C.3     1  LIG1       -0.0531
     11 C          11.1774    7.3191    0.0977 C.3     1  LIG1       -0.0531
     12 C          12.7060    7.3333    0.0619 C.3     1  LIG1       -0.0530
     13 C          13.2653    8.7557    0.1143 C.3     1  LIG1       -0.0528
     14 C          14.7919    8.7407    0.0162 C.3     1  LIG1       -0.0490
     15 C          15.3780   10.1519    0.0915 C.3     1  LIG1       -0.0258
     16 C          16.8862   10.1279   -0.0371 C.ar    1  LIG1       -0.0233
     17 C          17.5389   10.1691   -1.2849 C.ar    1  LIG1        0.0280
     18 N          16.8351   10.3751   -2.4824 N.pl3   1  LIG1       -0.3577
     19 C          18.9402   10.2267   -1.3145 C.ar    1  LIG1       -0.0373
     20 C          19.6908   10.1248   -0.1428 C.ar    1  LIG1       -0.0184
     21 C          19.0416   10.0089    1.0746 C.ar    1  LIG1        0.1172
     22 C          17.6522   10.0170    1.1402 C.ar    1  LIG1       -0.0153
     23 O          19.8066    9.9033    2.1980 O.3     1  LIG1       -0.5068
     24 H           0.6190   -1.1462   -0.1601 H       1  LIG1        0.0230
     25 H           0.6162    0.3183   -1.1576 H       1  LIG1        0.0230
     26 H           0.4973    0.4456    0.6087 H       1  LIG1        0.0230
     27 H           2.9149   -0.6376   -0.9336 H       1  LIG1        0.0263
     28 H           2.7973   -0.5248    0.8237 H       1  LIG1        0.0263
     29 H           2.5605    1.9624    0.6544 H       1  LIG1        0.0265
     30 H           2.6659    1.8572   -1.1042 H       1  LIG1        0.0265
     31 H           4.9540    0.8706   -0.9202 H       1  LIG1        0.0265
     32 H           4.8523    0.9418    0.8404 H       1  LIG1        0.0265
     33 H           4.6119    3.4290    0.7339 H       1  LIG1        0.0265
     34 H           4.6981    3.3673   -1.0280 H       1  LIG1        0.0265
     35 H           6.9884    2.3737   -0.8900 H       1  LIG1        0.0265
     36 H           6.9051    2.4099    0.8726 H       1  LIG1        0.0265
     37 H           6.6619    4.8986    0.8186 H       1  LIG1        0.0265
     38 H           6.7268    4.8722   -0.9452 H       1  LIG1        0.0265
     39 H           9.0178    3.8806   -0.8570 H       1  LIG1        0.0265
     40 H           8.9579    3.8776    0.9067 H       1  LIG1        0.0265
     41 H           8.7241    6.3651    0.9167 H       1  LIG1        0.0265
     42 H           8.7509    6.3830   -0.8485 H       1  LIG1        0.0265
     43 H          11.0361    5.3756   -0.8346 H       1  LIG1        0.0265
     44 H          11.0167    5.3334    0.9293 H       1  LIG1        0.0265
     45 H          10.8226    7.8174    1.0079 H       1  LIG1        0.0265
     46 H          10.7845    7.8840   -0.7562 H       1  LIG1        0.0265
     47 H          13.0523    6.8378   -0.8534 H       1  LIG1        0.0265
     48 H          13.0982    6.7561    0.9083 H       1  LIG1        0.0265
     49 H          12.9578    9.2384    1.0499 H       1  LIG1        0.0265
     50 H          12.8499    9.3484   -0.7095 H       1  LIG1        0.0265
     51 H          15.0904    8.2606   -0.9242 H       1  LIG1        0.0268
     52 H          15.2043    8.1258    0.8265 H       1  LIG1        0.0268
     53 H          15.1019   10.6186    1.0462 H       1  LIG1        0.0314
     54 H          14.9408   10.7968   -0.6799 H       1  LIG1        0.0314
     55 H          17.3565   10.0987   -3.3085 H       1  LIG1        0.1423
     56 H          15.9010    9.9804   -2.4814 H       1  LIG1        0.1423
     57 H          19.4626   10.3438   -2.2601 H       1  LIG1        0.0637
     58 H          20.7757   10.1458   -0.1839 H       1  LIG1        0.0655
     59 H          17.1491    9.9478    2.1000 H       1  LIG1        0.0657
     60 H          19.2181    9.8388    2.9673 H       1  LIG1        0.2921
@<TRIPOS>BOND
     1    17    19   ar
     2    19    20   ar
     3    16    17   ar
     4    16    22   ar
     5    21    22   ar
     6    20    21   ar
     7     1     2    1
     8     2     3    1
     9     3     4    1
    10     4     5    1
    11     5     6    1
    12     6     7    1
    13     7     8    1
    14     8     9    1
    15     9    10    1
    16    10    11    1
    17    11    12    1
    18    12    13    1
    19    13    14    1
    20    14    15    1
    21    15    16    1
    22    21    23    1
    23    17    18    1
    24     1    24    1
    25     1    25    1
    26     1    26    1
    27     2    27    1
    28     2    28    1
    29     3    29    1
    30     3    30    1
    31     4    31    1
    32     4    32    1
    33     5    33    1
    34     5    34    1
    35     6    35    1
    36     6    36    1
    37     7    37    1
    38     7    38    1
    39     8    39    1
    40     8    40    1
    41     9    41    1
    42     9    42    1
    43    10    43    1
    44    10    44    1
    45    11    45    1
    46    11    46    1
    47    12    47    1
    48    12    48    1
    49    13    49    1
    50    13    50    1
    51    14    51    1
    52    14    52    1
    53    15    53    1
    54    15    54    1
    55    18    55    1
    56    18    56    1
    57    19    57    1
    58    20    58    1
    59    22    59    1
    60    23    60    1
@<TRIPOS>MOLECULE
18
 50 53 0 0 0
SMALL
GASTEIGER
Energy = 0

@<TRIPOS>ATOM
      1 C           1.7471   -0.9187   -0.5940 C.3     1  LIG1        0.1235
      2 C           0.9117   -1.0385   -1.8710 C.3     1  LIG1        0.1235
      3 O           1.3977   -2.0932   -2.7027 O.3     1  LIG1       -0.4880
      4 C           0.8234   -2.2118   -3.9498 C.ar    1  LIG1        0.1283
      5 C           1.4920   -3.0254   -4.8961 C.ar    1  LIG1        0.0238
      6 C           0.8982   -3.1764   -6.1698 C.ar    1  LIG1       -0.0505
      7 C          -0.3128   -2.5655   -6.4966 C.ar    1  LIG1       -0.0610
      8 C          -0.9598   -1.7784   -5.5558 C.ar    1  LIG1       -0.0583
      9 C          -0.3962   -1.6019   -4.2917 C.ar    1  LIG1       -0.0193
     10 C           2.7805   -3.7092   -4.6240 C.ar    1  LIG1       -0.0144
     11 C           3.8673   -3.0354   -4.0426 C.ar    1  LIG1       -0.0539
     12 C           5.0897   -3.6775   -3.8226 C.ar    1  LIG1       -0.0612
     13 C           5.2550   -5.0096   -4.1908 C.ar    1  LIG1       -0.0617
     14 C           4.1957   -5.7016   -4.7695 C.ar    1  LIG1       -0.0612
     15 C           2.9716   -5.0588   -4.9784 C.ar    1  LIG1       -0.0539
     16 O           3.0399   -0.3972   -0.9094 O.3     1  LIG1       -0.4880
     17 C           3.7491    0.2640    0.0644 C.ar    1  LIG1        0.1283
     18 C           3.2935    0.4399    1.3804 C.ar    1  LIG1       -0.0193
     19 C           4.0413    1.1663    2.3100 C.ar    1  LIG1       -0.0583
     20 C           5.2597    1.7179    1.9417 C.ar    1  LIG1       -0.0610
     21 C           5.7392    1.5242    0.6472 C.ar    1  LIG1       -0.0505
     22 C           5.0112    0.7867   -0.3131 C.ar    1  LIG1        0.0238
     23 C           5.6151    0.5717   -1.6503 C.ar    1  LIG1       -0.0144
     24 C           4.9168    0.8443   -2.8372 C.ar    1  LIG1       -0.0539
     25 C           5.5047    0.6338   -4.0888 C.ar    1  LIG1       -0.0612
     26 C           6.8106    0.1588   -4.1779 C.ar    1  LIG1       -0.0617
     27 C           7.5282   -0.1094   -3.0169 C.ar    1  LIG1       -0.0612
     28 C           6.9339    0.0909   -1.7682 C.ar    1  LIG1       -0.0539
     29 H           1.1925   -0.2412    0.0626 H       1  LIG1        0.0731
     30 H           1.8720   -1.8966   -0.1175 H       1  LIG1        0.0731
     31 H           0.9542   -0.0862   -2.4141 H       1  LIG1        0.0731
     32 H          -0.1185   -1.2648   -1.5726 H       1  LIG1        0.0731
     33 H           1.3937   -3.7750   -6.9326 H       1  LIG1        0.0625
     34 H          -0.7446   -2.7059   -7.4838 H       1  LIG1        0.0618
     35 H          -1.9053   -1.3018   -5.8011 H       1  LIG1        0.0619
     36 H          -0.9463   -0.9871   -3.5874 H       1  LIG1        0.0654
     37 H           3.7722   -1.9911   -3.7510 H       1  LIG1        0.0624
     38 H           5.9076   -3.1284   -3.3630 H       1  LIG1        0.0618
     39 H           6.2060   -5.5070   -4.0234 H       1  LIG1        0.0618
     40 H           4.3170   -6.7423   -5.0578 H       1  LIG1        0.0618
     41 H           2.1566   -5.6275   -5.4212 H       1  LIG1        0.0624
     42 H           2.3566    0.0196    1.7280 H       1  LIG1        0.0654
     43 H           3.6673    1.3008    3.3218 H       1  LIG1        0.0619
     44 H           5.8425    2.2893    2.6591 H       1  LIG1        0.0618
     45 H           6.7004    1.9614    0.3808 H       1  LIG1        0.0625
     46 H           3.8961    1.2181   -2.7948 H       1  LIG1        0.0624
     47 H           4.9367    0.8351   -4.9931 H       1  LIG1        0.0618
     48 H           7.2653   -0.0063   -5.1508 H       1  LIG1        0.0618
     49 H           8.5479   -0.4800   -3.0787 H       1  LIG1        0.0618
     50 H           7.5100   -0.1431   -0.8750 H       1  LIG1        0.0624
@<TRIPOS>BOND
     1     5     6   ar
     2     6     7   ar
     3     4     5   ar
     4     4     9   ar
     5     8     9   ar
     6     7     8   ar
     7    10    11   ar
     8    11    12   ar
     9    10    15   ar
    10    14    15   ar
    11    13    14   ar
    12    12    13   ar
    13    17    18   ar
    14    18    19   ar
    15    17    22   ar
    16    21    22   ar
    17    20    21   ar
    18    19    20   ar
    19    23    24   ar
    20    24    25   ar
    21    23    28   ar
    22    27    28   ar
    23    26    27   ar
    24    25    26   ar
    25     1    16    1
    26    16    17    1
    27    22    23    1
    28     1     2    1
    29     2     3    1
    30     3     4    1
    31     5    10    1
    32     1    29    1
    33     1    30    1
    34     2    31    1
    35     2    32    1
    36     6    33    1
    37     7    34    1
    38     8    35    1
    39     9    36    1
    40    11    37    1
    41    12    38    1
    42    13    39    1
    43    14    40    1
    44    15    41    1
    45    18    42    1
    46    19    43    1
    47    20    44    1
    48    21    45    1
    49    24    46    1
    50    25    47    1
    51    26    48    1
    52    27    49    1
    53    28    50    1
